AEMO_Acceptance/NEOEN AEMO testing.seq
@!!IC, REV
0,     34           / PSS(R)E-34.2    SAT, AUG 18 2018  19:47
RPTFORMAT, AMPOUT=0, POLROU=0, AMPOUTZ=0, POLROUZ=0
MOV, ITERATIONS=20, TOLERANCE=0.01, MOVALPHA=0.3
SCMODEL, SCNRML=1
0 / END OF SYSTEM-WIDE DATA, BEGIN GENERATOR DATA
@!!  I,'ID',       ZRPOS,      ZXPPDV,       ZXPDV,       ZXSDV,       ZRNEG,     ZXNEGDV,         ZR0,       ZX0DV,CZG,       ZRG,         ZXG, REFDEG
   101,'1 ', 0.00000E+00, 1.00000E+00, 1.00000E+00, 1.00000E+00, 0.00000E+00, 1.00000E+00, 0.00000E+00, 1.00000E+00,1, 0.00000E+00, 0.00000E+00,  0.000
   500,'1 ', 0.00000E+00, 1.00000E+00, 1.00000E+00, 1.00000E+00, 0.00000E+00, 1.00000E+00, 0.00000E+00, 1.00000E+00,1, 0.00000E+00, 0.00000E+00,  0.000
0  / END OF GENERATOR DATA, BEGIN LOAD DATA
@!!  I,'ID',        PNEG,        QNEG,GRDFLG,  PZERO,       QZERO
0  / END OF LOAD DATA, BEGIN ZERO SEQ. NON-TRANSFORMER BRANCH DATA
@!!  I,     J,'ICKT',    RLINZ,      XLINZ,       BCHZ,         GI,         BI,         GJ,         BJ,        IPR,SCTYP
0  / END OF ZERO SEQ. NON-TRANSFORMER BRANCH DATA, BEGIN ZERO SEQ. MUTUAL DATA
@!!  I,     J,'ICKT1',  K,     L,'ICKT2',      RM,         XM,    BIJ1,    BIJ2,    BKL1,    BKL2
0  / END OF ZERO SEQ. MUTUAL DATA, BEGIN ZERO SEQ. TRANSFORMER DATA
@!!  I,     J,     K,'ICKT',CZ0,CZG,CC,   RG1,        XG1,        R01,        X01,        RG2,        XG2,        R02,        X02,     RNUTRL,     XNUTRL
@!!  I,     J,     K,'ICKT',CZ0,CZG,CC,   RG1,        XG1,        R01,        X01,        RG2,        XG2,        R02,        X02,        RG3,        XG3,        R03,        X03,     RNUTRL,     XNUTRL
   101,   201,     0,'1 ',1,1,  4, 6.00000E-3, 8.00000E-2, 0.00000E+0, 1.00000E-4, 0.00000E+0, 0.00000E+0, 0.00000E+0, 0.00000E+0, 0.00000E+0, 0.00000E+0
   201,   400,     0,'1 ',1,1,  4, 3.00000E-3, 6.00000E-2, 0.00000E+0, 1.00000E-4, 0.00000E+0, 0.00000E+0, 0.00000E+0, 0.00000E+0, 0.00000E+0, 0.00000E+0
0  / END OF ZERO SEQ. TRANSFORMER DATA, BEGIN ZERO SEQ. SWITCHED SHUNT DATA
@!!  I,       BZ1,       BZ2,       BZ3,       BZ4,       BZ5,       BZ6,       BZ7,       BZ8
0  / END OF ZERO SEQ. SWITCHED SHUNT DATA, BEGIN ZERO SEQ. FIXED SHUNT DATA
@!!  I,'ID',      GSZERO,      BSZERO
0  / END OF ZERO SEQ. FIXED SHUNT DATA, BEGIN INDUCTION MACHINE DATA
@!!  I,'ID',CZG,GRDFLG,ILR2IR,       RTOX,         ZR0,         ZX0,         ZRG,         ZXG,  ILR2IR_TRN,    RTOX_TRN,  ILR2IR_NEG,    RTOX_NEG
0  / END OF INDUCTION MACHINE DATA, BEGIN NON CONVENTIONAL SOURCE FAULT CONTRIBUTION DATA
@!!  I,'ID',      T1,     C1P,     C1Q,      T2,     C2P,     C2Q,      T3,     C3P,     C3Q,      T4,     C4P,     C4Q,      T5,     C5P,     C5Q,      T6,     C6P,     C6Q
0  / END OF NON CONVENTIONAL SOURCE FAULT CONTRIBUTION DATA
Q
